19

C         -0.17926        3.18586        2.65841
C         -0.11992        3.94846        1.49785
C         -0.19041        5.33002        1.54684
C         -0.32280        5.97231        2.77269
C         -0.38345        5.22178        3.93669
C         -0.31206        3.83303        3.87646
S          0.05917        3.15932       -0.13055
O         -1.14144        2.20276       -0.15992
U          0.00000        0.00000        0.00000
O          0.00000        0.00000        1.81726
O          1.29560        2.28756        0.05000
O         -1.46506       -1.63546       -0.08697
H         -1.64759       -1.91717       -0.98468
O          0.30004       -0.14890       -1.78062
H         -0.14195        5.90052        0.62449
H         -0.37869        7.05438        2.81745
H         -0.48742        5.71753        4.89563
H         -0.36165        3.24965        4.78919
H         -0.12258        2.10222        2.59345
