20

C          1.32283        3.72018        1.54928
S          1.04925        2.95697       -0.07604
O          1.89173        1.68194        0.00999
U          0.00000        0.00000        0.00000
O         -1.91368       -1.68948        0.01447
S         -1.05291       -2.95438        0.01977
O          0.41401       -2.51983        0.01464
O         -0.40835        2.49786        0.01184
O         -0.00225       -0.01355       -1.80060
O         -0.00000        0.00000        1.81033
C          1.77104        5.02920        1.58611
C          1.99454        5.64799        2.81072
C          1.76662        4.94731        3.98487
C          1.31561        3.63149        3.93696
C          1.09042        3.00876        2.72010
H          1.94454        5.56137        0.65611
H          2.34576        6.67318        2.84653
H          1.94018        5.42516        4.94266
H          1.13852        3.08726        4.85785
H          0.73789        1.98321        2.66390
