12

C         -2.81495        2.11836       -1.83460
S         -2.48524        1.86873       -0.06810
O         -2.50184        0.33722        0.03401
Np         0.00000        0.00000        0.00000
O          2.04230       -0.63298       -0.08485
O         -1.01679        2.30527        0.03472
O         -0.00000        0.00000        1.75494
O         -0.11160        0.07902       -1.75609
H         -2.73422        3.18441       -2.04917
H         -2.06269        1.54495       -2.37720
H         -3.82146        1.75688       -2.04758
O          1.21544       -1.76016       -0.08415
