12

C         -2.78276        1.97130       -2.01167
S         -2.53315        1.78844       -0.22082
O         -2.51188        0.26414       -0.07002
Pu         0.00000        0.00000        0.00000
O          2.26353       -0.79746        0.01251
O         -1.08993        2.27771       -0.06387
O          0.00000       -0.00000        1.75965
O          0.02043       -0.01452       -1.76610
H         -2.72847        3.03215       -2.25862
H         -1.98249        1.40913       -2.49473
H         -3.76270        1.56533       -2.26505
O          1.51180       -1.86364        0.01181
