   12
 
 C    -1.613482     1.101297     1.268163
 S    -1.048535    -0.621862     1.232107
 O    -1.236947    -0.975344    -0.249973
 U     1.183529    -0.688505    -0.965379
 O     3.087833    -0.465573    -1.909556
 O     0.460766    -0.453954     1.457825
 O     1.411542    -2.424674    -0.657223
 O     0.788682     1.046875    -1.103943
 H    -1.437827     1.496096     2.269307
 H    -1.028244     1.636801     0.519870
 H    -2.677105     1.116301     1.028387
 O     2.109789    -0.767459    -2.889586
