12

C         -3.58630       -0.44478       -1.71929
S         -3.10901       -0.38559        0.02954
O         -2.05055       -1.49572        0.09597
U          0.00000        0.00000        0.00000
O          1.91070        0.94792       -0.13843
O         -2.35381        0.94949        0.09597
O          0.00000       -0.00000        1.77798
O         -0.23592       -0.02926       -1.76922
H         -4.27996        0.37488       -1.91044
H         -2.66833       -0.33093       -2.29684
H         -4.05871       -1.40907       -1.91044
O          2.08437       -0.45244       -0.13843
